.SUBCKT ad INOUT
M1 AIO VSS VSS VSS nch W=1.6U L=0.24U
.GLOBAL VDD
.GLOBAL VSS
.ENDS

.SUBCKT and2s1 Q DIN1 DIN2
M1 N1N251 DIN1 VDD VDD pch W=0.7U L=0.24U
M2 N1N251 DIN2 VDD VDD pch W=0.7U L=0.24U
M3 N1N251 DIN1 N1N257 VSS nch W=0.7U L=0.24U
M4 N1N257 DIN2 VSS VSS nch W=0.7U L=0.24U
M5 Q N1N251 VDD VDD pch W=1.76U L=0.24U
M6 Q N1N251 VSS VSS nch W=0.9U L=0.24U
.GLOBAL VDD
.GLOBAL VSS
.ENDS

.SUBCKT and2s2 Q DIN1 DIN2
M3 N1N257 DIN1 N1N259 VSS nch W=2.14U L=0.24U
M1 N1N257 DIN1 VDD VDD pch W=2.4U L=0.24U
M2 N1N257 DIN2 VDD VDD pch W=2.4U L=0.24U
M5 Q N1N257 VDD VDD pch W=5.3U L=0.24U
M4 N1N259 DIN2 VSS VSS nch W=2.14U L=0.24U
M6 Q N1N257 VSS VSS nch W=3.1U L=0.24U
.GLOBAL VDD
.GLOBAL VSS
.ENDS

.SUBCKT and2s3 Q DIN1 DIN2
M3 N1N257 DIN1 N1N259 VSS nch W=4.4U L=0.24U
M1 N1N257 DIN1 VDD VDD pch W=4.5U L=0.24U
M2 N1N257 DIN2 VDD VDD pch W=4.5U L=0.24U
M4 N1N259 DIN2 VSS VSS nch W=4.4U L=0.24U
M5 Q N1N257 VDD VDD pch W=9.5U L=0.24U
M6 Q N1N257 VSS VSS nch W=6.9U L=0.24U
.GLOBAL VDD
.GLOBAL VSS
.ENDS

.SUBCKT and3s1 Q DIN1 DIN2 DIN3
M4 N1N258 DIN1 N1N262 VSS nch W=1.08U L=0.24U
M1 N1N258 DIN1 VDD VDD pch W=0.82U L=0.24U
M2 N1N258 DIN2 VDD VDD pch W=0.82U L=0.24U
M3 N1N258 DIN3 VDD VDD pch W=0.82U L=0.24U
M5 N1N262 DIN2 N1N264 VSS nch W=1.08U L=0.24U
M6 N1N264 DIN3 VSS VSS nch W=1.08U L=0.24U
M8 Q N1N258 VSS VSS nch W=1.34U L=0.24U
M7 Q N1N258 VDD VDD pch W=1.8U L=0.24U
.GLOBAL VDD
.GLOBAL VSS
.ENDS

.SUBCKT and3s2 Q DIN1 DIN2 DIN3
M4 N1N258 DIN1 N1N262 VSS nch W=3.14U L=0.24U
M1 N1N258 DIN1 VDD VDD pch W=2.54U L=0.24U
M2 N1N258 DIN2 VDD VDD pch W=2.54U L=0.24U
M3 N1N258 DIN3 VDD VDD pch W=2.54U L=0.24U
M5 N1N262 DIN2 N1N264 VSS nch W=3.14U L=0.24U
M6 N1N264 DIN3 VSS VSS nch W=3.14U L=0.24U
M8 Q N1N258 VSS VSS nch W=4.1U L=0.24U
M7 Q N1N258 VDD VDD pch W=4.4U L=0.24U
.GLOBAL VDD
.GLOBAL VSS
.ENDS

.SUBCKT and3s3 Q DIN1 DIN2 DIN3
M4 N1N258 DIN1 N1N262 VSS nch W=3.8U L=0.24U
M1 N1N258 DIN1 VDD VDD pch W=4.7U L=0.24U
M2 N1N258 DIN2 VDD VDD pch W=4.7U L=0.24U
M3 N1N258 DIN3 VDD VDD pch W=4.7U L=0.24U
M5 N1N262 DIN2 N1N264 VSS nch W=4.76U L=0.24U
M6 N1N264 DIN3 VSS VSS nch W=7.4U L=0.24U
M8 Q N1N258 VSS VSS nch W=7.4U L=0.24U
M7 Q N1N258 VDD VDD pch W=9U L=0.24U
.GLOBAL VDD
.GLOBAL VSS
.ENDS

.SUBCKT and4s1 Q DIN1 DIN2 DIN3 DIN4
M5 N1N258 DIN1 N1N265 VSS nch W=1U L=0.24U
M1 N1N258 DIN1 VDD VDD pch W=1U L=0.24U
M2 N1N258 DIN2 VDD VDD pch W=1U L=0.24U
M3 N1N258 DIN3 VDD VDD pch W=1U L=0.24U
M4 N1N258 DIN4 VDD VDD pch W=1U L=0.24U
M6 N1N265 DIN2 N1N267 VSS nch W=1.24U L=0.24U
M7 N1N267 DIN3 N1N269 VSS nch W=1.44U L=0.24U
M8 N1N269 DIN4 VSS VSS nch W=1.64U L=0.24U
M9 Q N1N258 VDD VDD pch W=1.96U L=0.24U
M10 Q N1N258 VSS VSS nch W=1.6U L=0.24U
.GLOBAL VDD
.GLOBAL VSS
.ENDS

.SUBCKT and4s2 Q DIN1 DIN2 DIN3 DIN4
M5 N1N258 DIN1 N1N265 VSS nch W=2.32U L=0.24U
M1 N1N258 DIN1 VDD VDD pch W=3U L=0.24U
M2 N1N258 DIN2 VDD VDD pch W=3U L=0.24U
M3 N1N258 DIN3 VDD VDD pch W=3U L=0.24U
M4 N1N258 DIN4 VDD VDD pch W=3U L=0.24U
M6 N1N265 DIN2 N1N267 VSS nch W=2.54U L=0.24U
M7 N1N267 DIN3 N1N269 VSS nch W=3.96U L=0.24U
M8 N1N269 DIN4 VSS VSS nch W=4.16U L=0.24U
M9 Q N1N258 VDD VDD pch W=5.7U L=0.24U
M10 Q N1N258 VSS VSS nch W=4U L=0.24U
.GLOBAL VDD
.GLOBAL VSS
.ENDS

.SUBCKT and4s3 DIN1 DIN2 DIN3 DIN4 Q
M3 N1N259 DIN1 N1N262 VSS nch W=3.16U L=0.24U
M1 N1N259 DIN1 VDD VDD pch W=3.5U L=0.24U
M2 VDD DIN2 N1N259 VDD pch W=3.5U L=0.24U
M4 N1N262 DIN2 VSS VSS nch W=4.1U L=0.24U
M9 N1N279 N1N259 VDD VDD pch W=7.2U L=0.24U
M10 N1N279 N1N270 Q VDD pch W=7U L=0.24U
M5 N1N270 DIN3 VDD VDD pch W=3.5U L=0.24U
M6 VDD DIN4 N1N270 VDD pch W=3.5U L=0.24U
M7 N1N270 DIN3 N1N273 VSS nch W=3.16U L=0.24U
M8 N1N273 DIN4 VSS VSS nch W=4.1U L=0.24U
M11 Q N1N259 VSS VSS nch W=2.5U L=0.24U
M12 VSS N1N270 Q VSS nch W=2.5U L=0.24U
.GLOBAL VDD
.GLOBAL VSS
.ENDS

.SUBCKT aoai1112s1 Q DIN1 DIN2 DIN3 DIN4 DIN5
M6 N1N286 DIN1 Q VSS nch W=0.8U L=0.24U
M1 N1N282 DIN4 VDD VDD pch W=1.5U L=0.24U
M2 N1N282 DIN5 VDD VDD pch W=1.5U L=0.24U
M3 Q DIN3 N1N282 VDD pch W=1.4U L=0.24U
M4 VDD DIN2 Q VDD pch W=0.7U L=0.24U
M5 VDD DIN1 Q VDD pch W=0.7U L=0.24U
M7 N1N299 DIN2 N1N286 VSS nch W=0.8U L=0.24U
M8 N1N299 DIN3 VSS VSS nch W=0.8U L=0.24U
M9 N1N299 DIN4 N1N302 VSS nch W=1.6U L=0.24U
M10 N1N302 DIN5 VSS VSS nch W=1.6U L=0.24U
.GLOBAL VDD
.GLOBAL VSS
.ENDS

.SUBCKT aoai1112s2 Q DIN1 DIN2 DIN3 DIN4 DIN5
M6 N1N286 DIN1 Q VSS nch W=1.1U L=0.24U
M1 N1N282 DIN4 VDD VDD pch W=2U L=0.24U
M2 N1N282 DIN5 VDD VDD pch W=2U L=0.24U
M3 Q DIN3 N1N282 VDD pch W=1.9U L=0.24U
M4 VDD DIN2 Q VDD pch W=1U L=0.24U
M5 VDD DIN1 Q VDD pch W=1U L=0.24U
M7 N1N299 DIN2 N1N286 VSS nch W=1.1U L=0.24U
M8 N1N299 DIN3 VSS VSS nch W=1.1U L=0.24U
M9 N1N299 DIN4 N1N302 VSS nch W=2.2U L=0.24U
M10 N1N302 DIN5 VSS VSS nch W=2.2U L=0.24U
.GLOBAL VDD
.GLOBAL VSS
.ENDS

.SUBCKT aoai1112s3 DIN1 DIN2 DIN3 DIN4 DIN5 Q
M6 N1N286 DIN1 Q VSS nch W=1.6U L=0.24U
M1 N1N282 DIN4 VDD VDD pch W=3.3U L=0.24U
M2 N1N282 DIN5 VDD VDD pch W=3.4U L=0.24U
M3 Q DIN3 N1N282 VDD pch W=3.3U L=0.24U
M4 VDD DIN2 Q VDD pch W=1.7U L=0.24U
M5 VDD DIN1 Q VDD pch W=1.7U L=0.24U
M7 N1N299 DIN2 N1N286 VSS nch W=1.7U L=0.24U
M8 N1N299 DIN3 VSS VSS nch W=1.7U L=0.24U
M9 N1N299 DIN4 N1N302 VSS nch W=3.4U L=0.24U
M10 N1N302 DIN5 VSS VSS nch W=3.4U L=0.24U
.GLOBAL VDD
.GLOBAL VSS
.ENDS

.SUBCKT aoai122s1 DIN1 DIN2 DIN3 DIN4 DIN5 Q
M6 Q DIN1 N1N298 VSS nch W=0.9U L=0.24U
M2 N1N290 DIN2 VDD VDD pch W=1.5U L=0.24U
M3 Q DIN4 N1N290 VDD pch W=1.5U L=0.24U
M4 VDD DIN3 N1N290 VDD pch W=1.5U L=0.24U
M5 N1N290 DIN5 Q VDD pch W=1.5U L=0.24U
M7 N1N298 DIN2 N1N300 VSS nch W=0.9U L=0.24U
M10 VSS DIN5 N1N302 VSS nch W=0.9U L=0.24U
M9 N1N302 DIN4 N1N298 VSS nch W=0.9U L=0.24U
M8 VSS DIN3 N1N300 VSS nch W=0.9U L=0.24U
M1 Q DIN1 VDD VDD pch W=0.7U L=0.24U
.GLOBAL VDD
.GLOBAL VSS
.ENDS

.SUBCKT aoai122s2 DIN1 DIN2 DIN3 DIN4 DIN5 Q
M6 Q DIN1 N1N298 VSS nch W=1.1U L=0.24U
M2 N1N290 DIN2 VDD VDD pch W=1.8U L=0.24U
M3 Q DIN4 N1N290 VDD pch W=1.8U L=0.24U
M4 VDD DIN3 N1N290 VDD pch W=1.8U L=0.24U
M5 N1N290 DIN5 Q VDD pch W=1.8U L=0.24U
M7 N1N298 DIN2 N1N300 VSS nch W=1.1U L=0.24U
M10 VSS DIN5 N1N302 VSS nch W=1.1U L=0.24U
M9 N1N302 DIN4 N1N298 VSS nch W=1.1U L=0.24U
M8 VSS DIN3 N1N300 VSS nch W=1.1U L=0.24U
M1 Q DIN1 VDD VDD pch W=0.8U L=0.24U
.GLOBAL VDD
.GLOBAL VSS
.ENDS

.SUBCKT aoai122s3 DIN1 DIN2 DIN3 DIN4 DIN5 Q
M6 N1N292 DIN1 N1N298 VSS nch W=0.9U L=0.24U
M2 N1N290 DIN2 VDD VDD pch W=1.5U L=0.24U
M3 N1N292 DIN4 N1N290 VDD pch W=1.5U L=0.24U
M4 VDD DIN3 N1N290 VDD pch W=1.5U L=0.24U
M5 N1N290 DIN5 N1N292 VDD pch W=1.5U L=0.24U
M7 N1N298 DIN2 N1N300 VSS nch W=1U L=0.24U
M10 VSS DIN5 N1N302 VSS nch W=1U L=0.24U
M9 N1N302 DIN4 N1N298 VSS nch W=1U L=0.24U
M8 VSS DIN3 N1N300 VSS nch W=1U L=0.24U
M1 N1N292 DIN1 VDD VDD pch W=0.7U L=0.24U
M12 N1N339 N1N292 VSS VSS nch W=1.4U L=0.24U
M11 N1N339 N1N292 VDD VDD pch W=2.7U L=0.24U
M13 Q N1N339 VDD VDD pch W=4.5U L=0.24U
M14 Q N1N339 VSS VSS nch W=2.4U L=0.24U
.GLOBAL VDD
.GLOBAL VSS
.ENDS

.SUBCKT aoi123s1 Q DIN1 DIN2 DIN3 DIN4 DIN5 DIN6
M4 N1N461 DIN3 N1N445 VDD pch W=4.1U L=0.24U
M1 N1N445 DIN5 VDD VDD pch W=4.1U L=0.24U
M2 VDD DIN4 N1N445 VDD pch W=4.1U L=0.24U
M3 VDD DIN6 N1N445 VDD pch W=4.1U L=0.24U
M5 N1N445 DIN2 N1N461 VDD pch W=4.1U L=0.24U
M6 Q DIN1 N1N461 VDD pch W=4.1U L=0.24U
M7 N1N469 DIN2 Q VSS nch W=1.2U L=0.24U
M10 N1N469 DIN3 VSS VSS nch W=1.2U L=0.24U
M8 N1N473 DIN4 Q VSS nch W=1.8U L=0.24U
M12 VSS DIN6 N1N475 VSS nch W=1.8U L=0.24U
M11 N1N475 DIN5 N1N473 VSS nch W=1.8U L=0.24U
M9 Q DIN1 VSS VSS nch W=0.6U L=0.24U
.GLOBAL VDD
.GLOBAL VSS
.ENDS

.SUBCKT aoi123s2 Q DIN1 DIN2 DIN3 DIN4 DIN5 DIN6
M4 N1N461 DIN3 N1N445 VDD pch W=5.8U L=0.24U
M1 N1N445 DIN5 VDD VDD pch W=5.8U L=0.24U
M2 VDD DIN4 N1N445 VDD pch W=5.8U L=0.24U
M3 VDD DIN6 N1N445 VDD pch W=5.8U L=0.24U
M5 N1N445 DIN2 N1N461 VDD pch W=5.8U L=0.24U
M6 Q DIN1 N1N461 VDD pch W=5.8U L=0.24U
M7 N1N469 DIN2 Q VSS nch W=1.7U L=0.24U
M10 N1N469 DIN3 VSS VSS nch W=1.7U L=0.24U
M8 N1N473 DIN4 Q VSS nch W=2.5U L=0.24U
M12 VSS DIN6 N1N475 VSS nch W=2.5U L=0.24U
M11 N1N475 DIN5 N1N473 VSS nch W=2.5U L=0.24U
M9 Q DIN1 VSS VSS nch W=0.8U L=0.24U
.GLOBAL VDD
.GLOBAL VSS
.ENDS

.SUBCKT aoi123s3 Q DIN1 DIN2 DIN3 DIN4 DIN5 DIN6
M4 N1N461 DIN3 N1N445 VDD pch W=7.8U L=0.24U
M1 N1N445 DIN5 VDD VDD pch W=7.8U L=0.24U
M2 VDD DIN4 N1N445 VDD pch W=7.8U L=0.24U
M3 VDD DIN6 N1N445 VDD pch W=7.8U L=0.24U
M5 N1N445 DIN2 N1N461 VDD pch W=7.8U L=0.24U
M6 Q DIN1 N1N461 VDD pch W=7.8U L=0.24U
M7 N1N469 DIN2 Q VSS nch W=2.2U L=0.24U
M10 N1N469 DIN3 VSS VSS nch W=2.2U L=0.24U
M8 N1N473 DIN4 Q VSS nch W=3.3U L=0.24U
M12 VSS DIN6 N1N475 VSS nch W=3.3U L=0.24U
M11 N1N475 DIN5 N1N473 VSS nch W=3.3U L=0.24U
M9 Q DIN1 VSS VSS nch W=1.1U L=0.24U
.GLOBAL VDD
.GLOBAL VSS
.ENDS

.SUBCKT aoi13s1 Q DIN1 DIN2 DIN3 DIN4
M6 N1N452 DIN2 Q VSS nch W=1.24U L=0.24U
M2 VDD DIN3 N1N490 VDD pch W=2.8U L=0.24U
M5 Q DIN1 VSS VSS nch W=0.6U L=0.24U
M4 Q DIN1 N1N490 VDD pch W=2.7U L=0.24U
M1 N1N490 DIN2 VDD VDD pch W=2.8U L=0.24U
M3 VDD DIN4 N1N490 VDD pch W=2.8U L=0.24U
M8 VSS DIN4 N1N454 VSS nch W=1U L=0.24U
M7 N1N454 DIN3 N1N452 VSS nch W=1.24U L=0.24U
.GLOBAL VDD
.GLOBAL VSS
.ENDS

.SUBCKT aoi13s2 Q DIN1 DIN2 DIN3 DIN4
M5 Q DIN1 VSS VSS nch W=0.8U L=0.24U
M4 Q DIN1 N1N486 VDD pch W=4U L=0.24U
M1 N1N486 DIN2 VDD VDD pch W=4.1U L=0.24U
M2 VDD DIN3 N1N486 VDD pch W=4.1U L=0.24U
M3 VDD DIN4 N1N486 VDD pch W=4.1U L=0.24U
M6 N1N452 DIN2 Q VSS nch W=1.84U L=0.24U
M7 N1N454 DIN3 N1N452 VSS nch W=1.84U L=0.24U
M8 VSS DIN4 N1N454 VSS nch W=1.84U L=0.24U
.GLOBAL VDD
.GLOBAL VSS
.ENDS

.SUBCKT aoi13s3 Q DIN1 DIN2 DIN3 DIN4
M5 Q DIN1 VSS VSS nch W=1U L=0.24U
M4 Q DIN1 N1N486 VDD pch W=6U L=0.24U
M1 N1N486 DIN2 VDD VDD pch W=6U L=0.24U
M2 VDD DIN3 N1N486 VDD pch W=6U L=0.24U
M3 VDD DIN4 N1N486 VDD pch W=6U L=0.24U
M6 N1N452 DIN2 Q VSS nch W=2.8U L=0.24U
M7 N1N454 DIN3 N1N452 VSS nch W=2.8U L=0.24U
M8 VSS DIN4 N1N454 VSS nch W=2.8U L=0.24U
.GLOBAL VDD
.GLOBAL VSS
.ENDS

.SUBCKT aoi211s1 Q DIN1 DIN2 DIN3 DIN4
M5 Q DIN1 N1N444 VSS nch W=1U L=0.24U
M3 N1N439 DIN4 N1N477 VDD pch W=3.7U L=0.24U
M4 Q DIN3 N1N477 VDD pch W=3.7U L=0.24U
M2 VDD DIN2 N1N439 VDD pch W=3.8U L=0.24U
M1 N1N439 DIN1 VDD VDD pch W=3.8U L=0.24U
M7 Q DIN3 VSS VSS nch W=0.6U L=0.24U
M8 VSS DIN4 Q VSS nch W=0.6U L=0.24U
M6 N1N444 DIN2 VSS VSS nch W=1U L=0.24U
.GLOBAL VDD
.GLOBAL VSS
.ENDS

.SUBCKT aoi211s2 Q DIN1 DIN2 DIN3 DIN4
M5 Q DIN1 N1N444 VSS nch W=1.3U L=0.24U
M3 N1N439 DIN4 N1N477 VDD pch W=4.8U L=0.24U
M4 Q DIN3 N1N477 VDD pch W=4.7U L=0.24U
M2 VDD DIN2 N1N439 VDD pch W=4.9U L=0.24U
M1 N1N439 DIN1 VDD VDD pch W=4.9U L=0.24U
M7 Q DIN3 VSS VSS nch W=0.8U L=0.24U
M8 VSS DIN4 Q VSS nch W=0.8U L=0.24U
M6 N1N444 DIN2 VSS VSS nch W=1.3U L=0.24U
.GLOBAL VDD
.GLOBAL VSS
.ENDS

.SUBCKT aoi211s3 Q DIN1 DIN2 DIN3 DIN4
M5 N1N467 DIN1 N1N444 VSS nch W=1.4U L=0.24U
M3 N1N439 DIN4 N1N480 VDD pch W=4.1U L=0.24U
M4 N1N467 DIN3 N1N480 VDD pch W=3.9U L=0.24U
M2 VDD DIN2 N1N439 VDD pch W=4.3U L=0.24U
M1 N1N439 DIN1 VDD VDD pch W=4.3U L=0.24U
M7 N1N467 DIN3 VSS VSS nch W=0.7U L=0.24U
M8 VSS DIN4 N1N467 VSS nch W=0.7U L=0.24U
M6 N1N444 DIN2 VSS VSS nch W=1.4U L=0.24U
M9 N1N489 N1N467 VDD VDD pch W=2.4U L=0.24U
M10 N1N489 N1N467 VSS VSS nch W=1.6U L=0.24U
M12 Q N1N489 VSS VSS nch W=2U L=0.24U
M11 Q N1N489 VDD VDD pch W=4.3U L=0.24U
.GLOBAL VDD
.GLOBAL VSS
.ENDS

.SUBCKT aoi21s1 Q DIN1 DIN2 DIN3
M5 Q DIN3 VSS VSS nch W=0.6U L=0.24U
M2 VDD DIN1 N1N344 VDD pch W=2.76U L=0.24U
M3 Q DIN3 N1N344 VDD pch W=2.76U L=0.24U
M1 N1N344 DIN2 VDD VDD pch W=2.76U L=0.24U
M4 Q DIN2 N1N322 VSS nch W=1U L=0.24U
M6 N1N322 DIN1 VSS VSS nch W=1U L=0.24U
.GLOBAL VDD
.GLOBAL VSS
.ENDS

.SUBCKT aoi21s2 Q DIN1 DIN2 DIN3
M5 Q DIN3 VSS VSS nch W=0.8U L=0.24U
M2 VDD DIN1 N1N344 VDD pch W=3.54U L=0.24U
M3 Q DIN3 N1N344 VDD pch W=3.54U L=0.24U
M1 N1N344 DIN2 VDD VDD pch W=3.54U L=0.24U
M4 Q DIN2 N1N322 VSS nch W=1.3U L=0.24U
M6 N1N322 DIN1 VSS VSS nch W=1.3U L=0.24U
.GLOBAL VDD
.GLOBAL VSS
.ENDS

.SUBCKT aoi21s3 Q DIN1 DIN2 DIN3
M5 Q DIN3 VSS VSS nch W=1U L=0.24U
M2 VDD DIN1 N1N344 VDD pch W=4.6U L=0.24U
M3 Q DIN3 N1N344 VDD pch W=4.6U L=0.24U
M1 N1N344 DIN2 VDD VDD pch W=4.6U L=0.24U
M4 Q DIN2 N1N322 VSS nch W=1.7U L=0.24U
M6 N1N322 DIN1 VSS VSS nch W=1.7U L=0.24U
.GLOBAL VDD
.GLOBAL VSS
.ENDS

.SUBCKT aoi221s1 Q DIN1 DIN2 DIN3 DIN4 DIN5
M6 Q DIN1 N1N449 VSS nch W=1U L=0.24U
M1 N1N439 DIN3 VDD VDD pch W=3.6U L=0.24U
M2 VDD DIN4 N1N439 VDD pch W=3.6U L=0.24U
M4 N1N439 DIN2 N1N443 VDD pch W=3.5U L=0.24U
M3 N1N443 DIN1 N1N439 VDD pch W=3.5U L=0.24U
M5 Q DIN5 N1N443 VDD pch W=3.4U L=0.24U
M8 N1N451 DIN3 Q VSS nch W=1U L=0.24U
M10 VSS DIN4 N1N451 VSS nch W=1U L=0.24U
M9 N1N449 DIN2 VSS VSS nch W=1U L=0.24U
M7 Q DIN5 VSS VSS nch W=0.6U L=0.24U
.GLOBAL VDD
.GLOBAL VSS
.ENDS

.SUBCKT aoi221s2 Q DIN1 DIN2 DIN3 DIN4 DIN5
M6 Q DIN1 N1N449 VSS nch W=1.22U L=0.24U
M1 N1N439 DIN3 VDD VDD pch W=4.3U L=0.24U
M3 N1N443 DIN1 N1N439 VDD pch W=4.2U L=0.24U
M5 Q DIN5 N1N443 VDD pch W=4.1U L=0.24U
M2 VDD DIN4 N1N439 VDD pch W=4.3U L=0.24U
M4 N1N439 DIN2 N1N443 VDD pch W=4.2U L=0.24U
M9 N1N449 DIN2 VSS VSS nch W=1.22U L=0.24U
M7 Q DIN5 VSS VSS nch W=0.74U L=0.24U
M8 N1N451 DIN3 Q VSS nch W=1.22U L=0.24U
M10 VSS DIN4 N1N451 VSS nch W=1.22U L=0.24U
.GLOBAL VDD
.GLOBAL VSS
.ENDS

.SUBCKT aoi221s3 Q DIN1 DIN2 DIN3 DIN4 DIN5
M6 N1N446 DIN1 N1N449 VSS nch W=1.3U L=0.24U
M1 N1N439 DIN3 VDD VDD pch W=3.7U L=0.24U
M3 N1N443 DIN1 N1N439 VDD pch W=3.5U L=0.24U
M5 N1N446 DIN5 N1N443 VDD pch W=3.4U L=0.24U
M2 VDD DIN4 N1N439 VDD pch W=3.7U L=0.24U
M4 N1N439 DIN2 N1N443 VDD pch W=3.5U L=0.24U
M9 N1N449 DIN2 VSS VSS nch W=1.3U L=0.24U
M7 N1N446 DIN5 VSS VSS nch W=0.7U L=0.24U
M8 N1N451 DIN3 N1N446 VSS nch W=1.3U L=0.24U
M10 VSS DIN4 N1N451 VSS nch W=1.3U L=0.24U
M11 N1N527 N1N446 VDD VDD pch W=2.5U L=0.24U
M12 N1N527 N1N446 VSS VSS nch W=1.6U L=0.24U
M14 Q N1N527 VSS VSS nch W=2U L=0.24U
M13 Q N1N527 VDD VDD pch W=4.3U L=0.24U
.GLOBAL VDD
.GLOBAL VSS
.ENDS

.SUBCKT aoi2221s1 Q DIN1 DIN2 DIN3 DIN4 DIN5 DIN6 DIN7
M1 N1N487 DIN1 VDD VDD pch W=5.8U L=0.24U
M3 N1N489 DIN3 N1N487 VDD pch W=5.6U L=0.24U
M5 N1N452 DIN5 N1N489 VDD pch W=5.4U L=0.24U
M2 VDD DIN2 N1N487 VDD pch W=5.8U L=0.24U
M4 N1N487 DIN4 N1N489 VDD pch W=5.6U L=0.24U
M6 N1N489 DIN6 N1N452 VDD pch W=5.4U L=0.24U
M8 Q DIN1 N1N454 VSS nch W=1.2U L=0.24U
M9 Q DIN3 N1N506 VSS nch W=1.2U L=0.24U
M13 N1N506 DIN4 VSS VSS nch W=1.2U L=0.24U
M12 N1N454 DIN2 VSS VSS nch W=1.2U L=0.24U
M10 N1N508 DIN5 Q VSS nch W=1.2U L=0.24U
M14 VSS DIN6 N1N508 VSS nch W=1.2U L=0.24U
M11 VSS DIN7 Q VSS nch W=0.6U L=0.24U
M7 Q DIN7 N1N452 VDD pch W=5.2U L=0.24U
.GLOBAL VDD
.GLOBAL VSS
.ENDS

.SUBCKT aoi2221s2 Q DIN1 DIN2 DIN3 DIN4 DIN5 DIN6 DIN7
M1 N1N487 DIN1 VDD VDD pch W=7.1U L=0.24U
M3 N1N489 DIN3 N1N487 VDD pch W=6.9U L=0.24U
M5 N1N452 DIN5 N1N489 VDD pch W=6.7U L=0.24U
M2 VDD DIN2 N1N487 VDD pch W=7.1U L=0.24U
M4 N1N487 DIN4 N1N489 VDD pch W=6.9U L=0.24U
M6 N1N489 DIN6 N1N452 VDD pch W=6.7U L=0.24U
M8 Q DIN1 N1N454 VSS nch W=1.4U L=0.24U
M9 Q DIN3 N1N506 VSS nch W=1.4U L=0.24U
M13 N1N506 DIN4 VSS VSS nch W=1.4U L=0.24U
M12 N1N454 DIN2 VSS VSS nch W=1.4U L=0.24U
M10 N1N508 DIN5 Q VSS nch W=1.4U L=0.24U
M14 VSS DIN6 N1N508 VSS nch W=1.4U L=0.24U
M11 VSS DIN7 Q VSS nch W=0.7U L=0.24U
M7 Q DIN7 N1N452 VDD pch W=6.5U L=0.24U
.GLOBAL VDD
.GLOBAL VSS
.ENDS

.SUBCKT aoi2221s3 Q DIN1 DIN2 DIN3 DIN4 DIN5 DIN6 DIN7
M1 N1N487 DIN1 VDD VDD pch W=8.6U L=0.24U
M3 N1N489 DIN3 N1N487 VDD pch W=8.4U L=0.24U
M5 N1N452 DIN5 N1N489 VDD pch W=8.2U L=0.24U
M2 VDD DIN2 N1N487 VDD pch W=8.6U L=0.24U
M4 N1N487 DIN4 N1N489 VDD pch W=8.4U L=0.24U
M6 N1N489 DIN6 N1N452 VDD pch W=8.2U L=0.24U
M8 Q DIN1 N1N454 VSS nch W=1.8U L=0.24U
M9 Q DIN3 N1N506 VSS nch W=1.8U L=0.24U
M13 N1N506 DIN4 VSS VSS nch W=1.8U L=0.24U
M12 N1N454 DIN2 VSS VSS nch W=1.8U L=0.24U
M10 N1N508 DIN5 Q VSS nch W=1.8U L=0.24U
M14 VSS DIN6 N1N508 VSS nch W=1.8U L=0.24U
M11 VSS DIN7 Q VSS nch W=0.9U L=0.24U
M7 Q DIN7 N1N452 VDD pch W=8.2U L=0.24U
.GLOBAL VDD
.GLOBAL VSS
.ENDS

.SUBCKT aoi222s1 Q DIN1 DIN2 DIN3 DIN4 DIN5 DIN6
M7 Q DIN1 N1N453 VSS nch W=1U L=0.24U
M1 N1N441 DIN6 VDD VDD pch W=3.76U L=0.24U
M2 VDD DIN5 N1N441 VDD pch W=3.76U L=0.24U
M3 N1N443 DIN4 N1N441 VDD pch W=3.46U L=0.24U
M4 N1N441 DIN3 N1N443 VDD pch W=3.46U L=0.24U
M5 Q DIN1 N1N443 VDD pch W=3.2U L=0.24U
M6 N1N443 DIN2 Q VDD pch W=3.2U L=0.24U
M10 N1N453 DIN2 VSS VSS nch W=1.1U L=0.24U
M8 Q DIN3 N1N517 VSS nch W=1U L=0.24U
M11 N1N517 DIN4 VSS VSS nch W=1.1U L=0.24U
M9 N1N455 DIN5 Q VSS nch W=1U L=0.24U
M12 VSS DIN6 N1N455 VSS nch W=1.1U L=0.24U
.GLOBAL VDD
.GLOBAL VSS
.ENDS

.SUBCKT aoi222s2 Q DIN1 DIN2 DIN3 DIN4 DIN5 DIN6
M7 Q DIN1 N1N453 VSS nch W=1.2U L=0.24U
M1 N1N441 DIN6 VDD VDD pch W=4.6U L=0.24U
M2 VDD DIN5 N1N441 VDD pch W=4.6U L=0.24U
M3 N1N443 DIN4 N1N441 VDD pch W=4.2U L=0.24U
M4 N1N441 DIN3 N1N443 VDD pch W=4.2U L=0.24U
M5 Q DIN1 N1N443 VDD pch W=3.8U L=0.24U
M6 N1N443 DIN2 Q VDD pch W=3.8U L=0.24U
M10 N1N453 DIN2 VSS VSS nch W=1.4U L=0.24U
M8 Q DIN3 N1N474 VSS nch W=1.2U L=0.24U
M11 N1N474 DIN4 VSS VSS nch W=1.4U L=0.24U
M9 N1N455 DIN5 Q VSS nch W=1.2U L=0.24U
M12 VSS DIN6 N1N455 VSS nch W=1.4U L=0.24U
.GLOBAL VDD
.GLOBAL VSS
.ENDS

.SUBCKT aoi222s3 Q DIN1 DIN2 DIN3 DIN4 DIN5 DIN6
M7 N1N449 DIN1 N1N453 VSS nch W=1.3U L=0.24U
M1 N1N441 DIN6 VDD VDD pch W=3.8U L=0.24U
M3 N1N443 DIN4 N1N441 VDD pch W=3.6U L=0.24U
M5 N1N449 DIN1 N1N443 VDD pch W=3.3U L=0.24U
M2 VDD DIN5 N1N441 VDD pch W=3.8U L=0.24U
M4 N1N441 DIN3 N1N443 VDD pch W=3.6U L=0.24U
M6 N1N443 DIN2 N1N449 VDD pch W=3.3U L=0.24U
M10 N1N453 DIN2 VSS VSS nch W=1.3U L=0.24U
M8 N1N449 DIN3 N1N474 VSS nch W=1.3U L=0.24U
M11 N1N474 DIN4 VSS VSS nch W=1.3U L=0.24U
M9 N1N455 DIN5 N1N449 VSS nch W=1.3U L=0.24U
M12 VSS DIN6 N1N455 VSS nch W=1.3U L=0.24U
M14 N1N517 N1N449 VSS VSS nch W=1.6U L=0.24U
M13 N1N517 N1N449 VDD VDD pch W=2.8U L=0.24U
M15 Q N1N517 VDD VDD pch W=4.7U L=0.24U
M16 Q N1N517 VSS VSS nch W=2.4U L=0.24U
.GLOBAL VDD
.GLOBAL VSS
.ENDS

.SUBCKT aoi22s1 Q DIN1 DIN2 DIN3 DIN4
M5 Q DIN1 N1N445 VSS nch W=1U L=0.24U
M1 N1N477 DIN3 VDD VDD pch W=2.6U L=0.24U
M3 Q DIN1 N1N477 VDD pch W=2.6U L=0.24U
M2 VDD DIN4 N1N477 VDD pch W=2.6U L=0.24U
M4 N1N477 DIN2 Q VDD pch W=2.6U L=0.24U
M7 N1N445 DIN2 VSS VSS nch W=1U L=0.24U
M6 N1N447 DIN3 Q VSS nch W=1U L=0.24U
M8 VSS DIN4 N1N447 VSS nch W=1U L=0.24U
.GLOBAL VDD
.GLOBAL VSS
.ENDS

.SUBCKT aoi22s2 Q DIN1 DIN2 DIN3 DIN4
M5 Q DIN1 N1N445 VSS nch W=1.3U L=0.24U
M1 N1N477 DIN3 VDD VDD pch W=3.3U L=0.24U
M3 Q DIN1 N1N477 VDD pch W=3.3U L=0.24U
M2 VDD DIN4 N1N477 VDD pch W=3.3U L=0.24U
M4 N1N477 DIN2 Q VDD pch W=3.3U L=0.24U
M7 N1N445 DIN2 VSS VSS nch W=1.3U L=0.24U
M6 N1N447 DIN3 Q VSS nch W=1.3U L=0.24U
M8 VSS DIN4 N1N447 VSS nch W=1.3U L=0.24U
.GLOBAL VDD
.GLOBAL VSS
.ENDS

.SUBCKT aoi22s3 Q DIN1 DIN2 DIN3 DIN4
M5 Q DIN1 N1N445 VSS nch W=1.84U L=0.24U
M1 N1N477 DIN3 VDD VDD pch W=4.6U L=0.24U
M3 Q DIN1 N1N477 VDD pch W=4.6U L=0.24U
M2 VDD DIN4 N1N477 VDD pch W=4.6U L=0.24U
M4 N1N477 DIN2 Q VDD pch W=4.6U L=0.24U
M7 N1N445 DIN2 VSS VSS nch W=1.84U L=0.24U
M6 N1N447 DIN3 Q VSS nch W=1.84U L=0.24U
M8 VSS DIN4 N1N447 VSS nch W=1.84U L=0.24U
.GLOBAL VDD
.GLOBAL VSS
.ENDS

.SUBCKT aoi23s1 Q DIN1 DIN2 DIN3 DIN4 DIN5
M6 Q DIN1 N1N497 VSS nch W=1U L=0.24U
M1 N1N487 DIN3 VDD VDD pch W=2.66U L=0.24U
M3 VDD DIN5 N1N487 VDD pch W=2.66U L=0.24U
M5 N1N487 DIN2 Q VDD pch W=2.6U L=0.24U
M4 Q DIN1 N1N487 VDD pch W=2.6U L=0.24U
M7 N1N497 DIN2 VSS VSS nch W=1U L=0.24U
M10 VSS DIN5 N1N501 VSS nch W=1.3U L=0.24U
M9 N1N501 DIN4 N1N499 VSS nch W=1.3U L=0.24U
M8 N1N499 DIN3 Q VSS nch W=1.3U L=0.24U
M2 VDD DIN4 N1N487 VDD pch W=2.66U L=0.24U
.GLOBAL VDD
.GLOBAL VSS
.ENDS

.SUBCKT aoi23s2 Q DIN1 DIN2 DIN3 DIN4 DIN5
M2 VDD DIN4 N1N435 VDD pch W=3.5U L=0.24U
M1 N1N435 DIN3 VDD VDD pch W=3.5U L=0.24U
M5 N1N435 DIN2 Q VDD pch W=3.4U L=0.24U
M4 Q DIN1 N1N435 VDD pch W=3.4U L=0.24U
M3 VDD DIN5 N1N435 VDD pch W=3.5U L=0.24U
M6 Q DIN1 N1N463 VSS nch W=1.4U L=0.24U
M7 N1N463 DIN2 VSS VSS nch W=1.4U L=0.24U
M10 VSS DIN5 N1N467 VSS nch W=1.8U L=0.24U
M8 N1N465 DIN3 Q VSS nch W=1.7U L=0.24U
M9 N1N467 DIN4 N1N465 VSS nch W=1.76U L=0.24U
.GLOBAL VDD
.GLOBAL VSS
.ENDS

.SUBCKT aoi23s3 Q DIN1 DIN2 DIN3 DIN4 DIN5
M2 VDD DIN4 N1N435 VDD pch W=4.8U L=0.24U
M1 N1N435 DIN3 VDD VDD pch W=4.8U L=0.24U
M5 N1N435 DIN2 Q VDD pch W=4.6U L=0.24U
M4 Q DIN1 N1N435 VDD pch W=4.6U L=0.24U
M3 VDD DIN5 N1N435 VDD pch W=4.8U L=0.24U
M6 Q DIN1 N1N463 VSS nch W=1.9U L=0.24U
M7 N1N463 DIN2 VSS VSS nch W=1.9U L=0.24U
M10 VSS DIN5 N1N467 VSS nch W=2.5U L=0.24U
M8 N1N465 DIN3 Q VSS nch W=2.3U L=0.24U
M9 N1N467 DIN4 N1N465 VSS nch W=2.5U L=0.24U
.GLOBAL VDD
.GLOBAL VSS
.ENDS

.SUBCKT aoi33s1 Q DIN1 DIN2 DIN3 DIN4 DIN5 DIN6
M7 Q DIN6 N1N481 VSS nch W=1.7U L=0.24U
M1 N1N459 DIN2 VDD VDD pch W=2.56U L=0.24U
M4 Q DIN5 N1N459 VDD pch W=2.4U L=0.24U
M2 N1N459 DIN3 VDD VDD pch W=2.56U L=0.24U
M5 Q DIN6 N1N459 VDD pch W=2.4U L=0.24U
M3 VDD DIN1 N1N459 VDD pch W=2.56U L=0.24U
M6 N1N459 DIN4 Q VDD pch W=2.4U L=0.24U
M9 N1N481 DIN5 N1N483 VSS nch W=1.7U L=0.24U
M11 N1N483 DIN4 VSS VSS nch W=1.7U L=0.24U
M10 N1N487 DIN2 N1N485 VSS nch W=1.7U L=0.24U
M8 Q DIN3 N1N485 VSS nch W=1.7U L=0.24U
M12 VSS DIN1 N1N487 VSS nch W=1.7U L=0.24U
.GLOBAL VDD
.GLOBAL VSS
.ENDS

.SUBCKT aoi33s2 Q DIN1 DIN2 DIN3 DIN4 DIN5 DIN6
M7 Q DIN6 N1N481 VSS nch W=2U L=0.24U
M1 N1N459 DIN2 VDD VDD pch W=3.5U L=0.24U
M2 N1N459 DIN3 VDD VDD pch W=3.5U L=0.24U
M4 Q DIN5 N1N459 VDD pch W=3.4U L=0.24U
M5 Q DIN6 N1N459 VDD pch W=3.4U L=0.24U
M3 VDD DIN1 N1N459 VDD pch W=3.5U L=0.24U
M6 N1N459 DIN4 Q VDD pch W=3.4U L=0.24U
M9 N1N481 DIN5 N1N483 VSS nch W=2.5U L=0.24U
M11 N1N483 DIN4 VSS VSS nch W=2.9U L=0.24U
M10 N1N487 DIN2 N1N485 VSS nch W=2.5U L=0.24U
M8 Q DIN3 N1N485 VSS nch W=2U L=0.24U
M12 VSS DIN1 N1N487 VSS nch W=2.9U L=0.24U
.GLOBAL VDD
.GLOBAL VSS
.ENDS

.SUBCKT aoi33s3 Q DIN1 DIN2 DIN3 DIN4 DIN5 DIN6
M7 Q DIN6 N1N481 VSS nch W=2.6U L=0.24U
M1 N1N459 DIN2 VDD VDD pch W=4.6U L=0.24U
M4 Q DIN5 N1N459 VDD pch W=4.4U L=0.24U
M2 N1N459 DIN3 VDD VDD pch W=4.6U L=0.24U
M5 Q DIN6 N1N459 VDD pch W=4.4U L=0.24U
M3 VDD DIN1 N1N459 VDD pch W=4.6U L=0.24U
M6 N1N459 DIN4 Q VDD pch W=4.4U L=0.24U
M8 Q DIN3 N1N485 VSS nch W=2.6U L=0.24U
M11 N1N483 DIN4 VSS VSS nch W=3.9U L=0.24U
M10 N1N487 DIN2 N1N485 VSS nch W=3.4U L=0.24U
M9 N1N481 DIN5 N1N483 VSS nch W=3.4U L=0.24U
M12 VSS DIN1 N1N487 VSS nch W=3.9U L=0.24U
.GLOBAL VDD
.GLOBAL VSS
.ENDS

.SUBCKT aoi4111s1 Q DIN1 DIN2 DIN3 DIN4 DIN5 DIN6 DIN7
M8 Q DIN7 VSS VSS nch W=0.6U L=0.24U
M5 N1N440 DIN7 N1N613 VDD pch W=5.4U L=0.24U
M6 N1N472 DIN6 N1N440 VDD pch W=5.2U L=0.24U
M7 Q DIN5 N1N472 VDD pch W=5U L=0.24U
M1 N1N613 DIN1 VDD VDD pch W=5.6U L=0.24U
M2 N1N613 DIN2 VDD VDD pch W=5.6U L=0.24U
M3 N1N613 DIN3 VDD VDD pch W=5.6U L=0.24U
M4 N1N613 DIN4 VDD VDD pch W=5.6U L=0.24U
M9 Q DIN6 VSS VSS nch W=0.6U L=0.24U
M10 Q DIN5 VSS VSS nch W=0.6U L=0.24U
M11 Q DIN4 N1N514 VSS nch W=2.4U L=0.24U
M13 N1N515 DIN2 N1N501 VSS nch W=2.4U L=0.24U
M14 N1N501 DIN1 VSS VSS nch W=2.4U L=0.24U
M12 N1N515 DIN3 N1N514 VSS nch W=2.4U L=0.24U
.GLOBAL VDD
.GLOBAL VSS
.ENDS

.SUBCKT aoi4111s2 Q DIN1 DIN2 DIN3 DIN4 DIN5 DIN6 DIN7
M8 Q DIN7 VSS VSS nch W=0.7U L=0.24U
M5 N1N440 DIN7 N1N613 VDD pch W=6.2U L=0.24U
M6 N1N472 DIN6 N1N440 VDD pch W=6U L=0.24U
M7 Q DIN5 N1N472 VDD pch W=5.8U L=0.24U
M1 N1N613 DIN1 VDD VDD pch W=6.3U L=0.24U
M2 N1N613 DIN2 VDD VDD pch W=6.3U L=0.24U
M3 N1N613 DIN3 VDD VDD pch W=6.3U L=0.24U
M4 N1N613 DIN4 VDD VDD pch W=6.3U L=0.24U
M9 Q DIN6 VSS VSS nch W=0.7U L=0.24U
M10 Q DIN5 VSS VSS nch W=0.7U L=0.24U
M11 Q DIN4 N1N514 VSS nch W=2.8U L=0.24U
M13 N1N515 DIN2 N1N501 VSS nch W=2.8U L=0.24U
M14 N1N501 DIN1 VSS VSS nch W=2.8U L=0.24U
M12 N1N515 DIN3 N1N514 VSS nch W=2.8U L=0.24U
.GLOBAL VDD
.GLOBAL VSS
.ENDS

.SUBCKT aoi4111s3 Q DIN1 DIN2 DIN3 DIN4 DIN5 DIN6 DIN7
M8 N1N449 DIN7 VSS VSS nch W=0.6U L=0.24U
M5 N1N440 DIN7 N1N639 VDD pch W=4.8U L=0.24U
M6 N1N472 DIN6 N1N440 VDD pch W=4.6U L=0.24U
M7 N1N449 DIN5 N1N472 VDD pch W=4.4U L=0.24U
M1 N1N639 DIN1 VDD VDD pch W=5U L=0.24U
M2 N1N639 DIN2 VDD VDD pch W=5U L=0.24U
M3 N1N639 DIN3 VDD VDD pch W=5U L=0.24U
M4 N1N639 DIN4 VDD VDD pch W=5U L=0.24U
M9 N1N449 DIN6 VSS VSS nch W=0.6U L=0.24U
M10 N1N449 DIN5 VSS VSS nch W=0.6U L=0.24U
M11 N1N449 DIN4 N1N514 VSS nch W=2.4U L=0.24U
M13 N1N515 DIN2 N1N501 VSS nch W=2.4U L=0.24U
M14 N1N501 DIN1 VSS VSS nch W=2.4U L=0.24U
M12 N1N515 DIN3 N1N514 VSS nch W=2.4U L=0.24U
M16 N1N591 N1N449 VSS VSS nch W=2.2U L=0.24U
M15 N1N591 N1N449 VDD VDD pch W=4.8U L=0.24U
M17 Q N1N591 VDD VDD pch W=6.6U L=0.24U
M18 Q N1N591 VSS VSS nch W=3.5U L=0.24U
.GLOBAL VDD
.GLOBAL VSS
.ENDS

.SUBCKT aoi42s1 Q DIN1 DIN2 DIN3 DIN4 DIN5 DIN6
M7 Q DIN1 N1N447 VSS nch W=1.9U L=0.24U
M1 N1N440 DIN1 VDD VDD pch W=2.6U L=0.24U
M2 N1N440 DIN2 VDD VDD pch W=2.6U L=0.24U
M3 VDD DIN3 N1N440 VDD pch W=2.6U L=0.24U
M4 VDD DIN4 N1N440 VDD pch W=2.6U L=0.24U
M5 Q DIN5 N1N440 VDD pch W=2.6U L=0.24U
M6 N1N440 DIN6 Q VDD pch W=2.6U L=0.24U
M8 N1N447 DIN2 N1N463 VSS nch W=1.9U L=0.24U
M9 N1N463 DIN3 N1N465 VSS nch W=1.9U L=0.24U
M10 N1N465 DIN4 VSS VSS nch W=1.9U L=0.24U
M11 N1N451 DIN5 Q VSS nch W=1U L=0.24U
M12 VSS DIN6 N1N451 VSS nch W=1U L=0.24U
.GLOBAL VDD
.GLOBAL VSS
.ENDS

.SUBCKT aoi42s2 Q DIN1 DIN2 DIN3 DIN4 DIN5 DIN6
M7 Q DIN1 N1N447 VSS nch W=2.86U L=0.24U
M1 N1N440 DIN1 VDD VDD pch W=3.9U L=0.24U
M2 N1N440 DIN2 VDD VDD pch W=3.9U L=0.24U
M3 VDD DIN3 N1N440 VDD pch W=3.9U L=0.24U
M4 VDD DIN4 N1N440 VDD pch W=3.9U L=0.24U
M5 Q DIN5 N1N440 VDD pch W=3.9U L=0.24U
M6 N1N440 DIN6 Q VDD pch W=3.9U L=0.24U
M8 N1N447 DIN2 N1N463 VSS nch W=2.86U L=0.24U
M9 N1N463 DIN3 N1N465 VSS nch W=2.86U L=0.24U
M10 N1N465 DIN4 VSS VSS nch W=2.86U L=0.24U
M11 N1N451 DIN5 Q VSS nch W=1.5U L=0.24U
M12 VSS DIN6 N1N451 VSS nch W=1.5U L=0.24U
.GLOBAL VDD
.GLOBAL VSS
.ENDS

.SUBCKT aoi42s3 Q DIN1 DIN2 DIN3 DIN4 DIN5 DIN6
M7 Q DIN1 N1N447 VSS nch W=4.3U L=0.24U
M1 N1N440 DIN1 VDD VDD pch W=5.9U L=0.24U
M2 N1N440 DIN2 VDD VDD pch W=5.9U L=0.24U
M3 VDD DIN3 N1N440 VDD pch W=5.9U L=0.24U
M4 VDD DIN4 N1N440 VDD pch W=5.9U L=0.24U
M5 Q DIN5 N1N440 VDD pch W=5.9U L=0.24U
M6 N1N440 DIN6 Q VDD pch W=5.9U L=0.24U
M8 N1N447 DIN2 N1N463 VSS nch W=4.3U L=0.24U
M9 N1N463 DIN3 N1N465 VSS nch W=4.3U L=0.24U
M10 N1N465 DIN4 VSS VSS nch W=4.3U L=0.24U
M11 N1N451 DIN5 Q VSS nch W=2.26U L=0.24U
M12 VSS DIN6 N1N451 VSS nch W=2.26U L=0.24U
.GLOBAL VDD
.GLOBAL VSS
.ENDS

.SUBCKT bshes1 INOUT1 INOUT2 E
M2 N1N313 E VSS VSS nch W=0.8U L=0.24U
M1 N1N313 E VDD VDD pch W=1.2U L=0.24U
M3 INOUT2 N1N313 INOUT1 VDD pch W=1.2U L=0.24U
M4 INOUT1 E INOUT2 VSS nch W=0.8U L=0.24U
.GLOBAL VDD
.GLOBAL VSS
.ENDS

.SUBCKT bshes2 INOUT2 E INOUT1
M2 N1N313 E VSS VSS nch W=1U L=0.24U
M1 N1N313 E VDD VDD pch W=1.5U L=0.24U
M3 INOUT2 N1N313 INOUT1 VDD pch W=2.1U L=0.24U
M4 INOUT1 E INOUT2 VSS nch W=1.5U L=0.24U
.GLOBAL VDD
.GLOBAL VSS
.ENDS

.SUBCKT bshes3 INOUT2 E INOUT1
M2 N1N313 E VSS VSS nch W=1.2U L=0.24U
M1 N1N313 E VDD VDD pch W=2U L=0.24U
M3 INOUT2 N1N313 INOUT1 VDD pch W=3.5U L=0.24U
M4 INOUT1 E INOUT2 VSS nch W=3U L=0.24U
.GLOBAL VDD
.GLOBAL VSS
.ENDS

.SUBCKT bsles1 INOUT2 EB INOUT1
M2 N1N330 EB VSS VSS nch W=0.9U L=0.24U
M1 N1N330 EB VDD VDD pch W=1.15U L=0.24U
M3 INOUT2 EB INOUT1 VDD pch W=1.45U L=0.24U
M4 INOUT1 N1N330 INOUT2 VSS nch W=0.9U L=0.24U
.GLOBAL VDD
.GLOBAL VSS
.ENDS

.SUBCKT bsles2 INOUT2 EB INOUT1
M2 N1N330 EB VSS VSS nch W=1U L=0.24U
M1 N1N330 EB VDD VDD pch W=1.5U L=0.24U
M3 INOUT2 EB INOUT1 VDD pch W=2.1U L=0.24U
M4 INOUT1 N1N330 INOUT2 VSS nch W=1.5U L=0.24U
.GLOBAL VDD
.GLOBAL VSS
.ENDS

.SUBCKT bsles3 INOUT2 EB INOUT1
M2 N1N330 EB VSS VSS nch W=1.2U L=0.24U
M1 N1N330 EB VDD VDD pch W=2U L=0.24U
M3 INOUT2 EB INOUT1 VDD pch W=3.5U L=0.24U
M4 INOUT1 N1N330 INOUT2 VSS nch W=3U L=0.24U
.GLOBAL VDD
.GLOBAL VSS
.ENDS

.SUBCKT clc2s1 PIN0 CIN0 GIN0 GIN1 PIN1 OUTP OUTC OUTG
M14 OUTC N1N64 VSS VSS nch W=0.72U L=0.24U
M7 OUTC N1N64 VDD VDD pch W=1.4U L=0.24U
M16 OUTG N1N145 VSS VSS nch W=0.72U L=0.24U
M15 OUTG N1N145 VDD VDD pch W=1.4U L=0.24U
M17 N1N153 PIN0 VDD VDD pch W=0.9U L=0.24U
M18 N1N153 PIN1 VDD VDD pch W=0.9U L=0.24U
M19 N1N153 PIN0 N1N151 VSS nch W=0.7U L=0.24U
M20 N1N151 PIN1 VSS VSS nch W=0.7U L=0.24U
M22 OUTP N1N153 VSS VSS nch W=0.9U L=0.24U
M21 OUTP N1N153 VDD VDD pch W=1.76U L=0.24U
M6 VSS PIN0 N1N66 VSS nch W=1.2U L=0.24U
M4 N1N64 GIN0 VSS VSS nch W=0.6U L=0.24U
M5 N1N66 CIN0 N1N64 VSS nch W=1.2U L=0.24U
M1 N1N60 PIN0 VDD VDD pch W=2.7U L=0.24U
M2 VDD CIN0 N1N60 VDD pch W=2.7U L=0.24U
M3 N1N64 GIN0 N1N60 VDD pch W=2.7U L=0.24U
M8 N1N86 GIN0 VDD VDD pch W=2.7U L=0.24U
M9 VDD PIN1 N1N86 VDD pch W=2.7U L=0.24U
M10 N1N145 GIN1 N1N86 VDD pch W=2.7U L=0.24U
M11 N1N145 GIN1 VSS VSS nch W=0.6U L=0.24U
M12 N1N85 PIN1 N1N145 VSS nch W=1.2U L=0.24U
M13 VSS GIN0 N1N85 VSS nch W=1.2U L=0.24U
.GLOBAL VDD
.GLOBAL VSS
.ENDS

.SUBCKT clc2s2 PIN0 CIN0 GIN0 GIN1 PIN1 OUTP OUTC OUTG
M14 OUTC N1N64 VSS VSS nch W=0.92U L=0.24U
M7 OUTC N1N64 VDD VDD pch W=1.7U L=0.24U
M16 OUTG N1N145 VSS VSS nch W=0.92U L=0.24U
M15 OUTG N1N145 VDD VDD pch W=1.7U L=0.24U
M17 N1N153 PIN0 VDD VDD pch W=1.2U L=0.24U
M18 N1N153 PIN1 VDD VDD pch W=1.2U L=0.24U
M19 N1N153 PIN0 N1N151 VSS nch W=0.9U L=0.24U
M20 N1N151 PIN1 VSS VSS nch W=0.9U L=0.24U
M22 OUTP N1N153 VSS VSS nch W=1.2U L=0.24U
M21 OUTP N1N153 VDD VDD pch W=2.26U L=0.24U
M6 VSS PIN0 N1N66 VSS nch W=1.6U L=0.24U
M4 N1N64 GIN0 VSS VSS nch W=0.8U L=0.24U
M5 N1N66 CIN0 N1N64 VSS nch W=1.6U L=0.24U
M1 N1N60 PIN0 VDD VDD pch W=3.5U L=0.24U
M2 VDD CIN0 N1N60 VDD pch W=3.5U L=0.24U
M3 N1N64 GIN0 N1N60 VDD pch W=3.5U L=0.24U
M8 N1N86 GIN0 VDD VDD pch W=3.5U L=0.24U
M9 VDD PIN1 N1N86 VDD pch W=3.5U L=0.24U
M10 N1N145 GIN1 N1N86 VDD pch W=3.5U L=0.24U
M11 N1N145 GIN1 VSS VSS nch W=0.8U L=0.24U
M12 N1N85 PIN1 N1N145 VSS nch W=1.6U L=0.24U
M13 VSS GIN0 N1N85 VSS nch W=1.6U L=0.24U
.GLOBAL VDD
.GLOBAL VSS
.ENDS

.SUBCKT clc2s3 PIN0 CIN0 GIN0 GIN1 PIN1 OUTP OUTC OUTG
M14 OUTC N1N64 VSS VSS nch W=1.26U L=0.24U
M7 OUTC N1N64 VDD VDD pch W=2.2U L=0.24U
M16 OUTG N1N145 VSS VSS nch W=1.26U L=0.24U
M15 OUTG N1N145 VDD VDD pch W=2.2U L=0.24U
M17 N1N153 PIN0 VDD VDD pch W=1.74U L=0.24U
M18 N1N153 PIN1 VDD VDD pch W=1.74U L=0.24U
M19 N1N153 PIN0 N1N151 VSS nch W=1.2U L=0.24U
M20 N1N151 PIN1 VSS VSS nch W=1.2U L=0.24U
M22 OUTP N1N153 VSS VSS nch W=1.5U L=0.24U